data_MoS
_audit_creation_method           'pos2cif.pl'
_cell_length_a               3.196223
_cell_length_b               3.19622297792942
_cell_length_c               23.12983
_cell_angle_alpha            90
_cell_angle_beta             90
_cell_angle_gamma            120.000010578056
_symmetry_space_group_H-M        'P1'
_symmetry_Int_Tables_number      '1'
_symmetry_cell_setting           'triclinic'
loop_
_symmetry_equiv_pos_as_xyz
x,y,z

loop_
_atom_site_label
_atom_site_type_symbol
_atom_site_occupancy
_atom_site_fract_x
_atom_site_fract_y
_atom_site_fract_z
_atom_site_U_iso_or_equiv
Mo1  Mo  1.0000  0.66667  0.33333  0.50000  0.0000
S1  S  1.0000  0.33333  0.66667  0.43214  0.0000
S2  S  1.0000  0.33333  0.66667  0.56786  0.0000
